#======================================================================

# CRYSTAL DATA

#----------------------------------------------------------------------

data_VESTA_phase_1


_pd_phase_name                         'CPO27/MOF74 metal variation - PBEsol  '
_cell_length_a                         25.38612
_cell_length_b                         25.38612
_cell_length_c                         6.46851
_cell_angle_alpha                      90
_cell_angle_beta                       90
_cell_angle_gamma                      120
_symmetry_space_group_name_H-M         'P 1'
_symmetry_Int_Tables_number            1

loop_
_symmetry_equiv_pos_as_xyz
   'x, y, z'

loop_
   _atom_site_label
   _atom_site_occupancy
   _atom_site_fract_x
   _atom_site_fract_y
   _atom_site_fract_z
   _atom_site_adp_type
   _atom_site_B_iso_or_equiv
   _atom_site_type_symbol
   C1         1.0     0.416069      0.408607      0.277336     Biso  1.000000 C
   C2         1.0     0.583931      0.591393      0.722664     Biso  1.000000 C
   C3         1.0     0.591393      0.007462      0.277336     Biso  1.000000 C
   C4         1.0     0.408607      0.992538      0.722664     Biso  1.000000 C
   C5         1.0     0.992538      0.583931      0.277336     Biso  1.000000 C
   C6         1.0     0.007462      0.416069      0.722664     Biso  1.000000 C
   C7         1.0     0.082736      0.741940      0.610669     Biso  1.000000 C
   C8         1.0     0.250597      0.924726      0.055997     Biso  1.000000 C
   C9         1.0     0.258060      0.340795      0.610669     Biso  1.000000 C
   C10        1.0     0.075274      0.325871      0.055997     Biso  1.000000 C
   C11        1.0     0.659204      0.917264      0.610669     Biso  1.000000 C
   C12        1.0     0.674129      0.749403      0.055997     Biso  1.000000 C
   C13        1.0     0.749403      0.075274      0.944003     Biso  1.000000 C
   C14        1.0     0.917264      0.258060      0.389331     Biso  1.000000 C
   C15        1.0     0.924726      0.674129      0.944003     Biso  1.000000 C
   C16        1.0     0.741940      0.659204      0.389331     Biso  1.000000 C
   C17        1.0     0.325871      0.250597      0.944003     Biso  1.000000 C
   C18        1.0     0.340795      0.082736      0.389331     Biso  1.000000 C
   C19        1.0     0.457861      0.453732      0.129390     Biso  1.000000 C
   C20        1.0     0.542139      0.546268      0.870610     Biso  1.000000 C
   C21        1.0     0.546268      0.004129      0.129390     Biso  1.000000 C
   C22        1.0     0.453732      0.995871      0.870610     Biso  1.000000 C
   C23        1.0     0.995871      0.542139      0.129390     Biso  1.000000 C
   C24        1.0     0.004129      0.457861      0.870610     Biso  1.000000 C
   C25        1.0     0.124528      0.787065      0.462724     Biso  1.000000 C
   C26        1.0     0.208805      0.879601      0.203943     Biso  1.000000 C
   C27        1.0     0.212935      0.337463      0.462724     Biso  1.000000 C
   C28        1.0     0.120399      0.329204      0.203943     Biso  1.000000 C
   C29        1.0     0.662537      0.875472      0.462724     Biso  1.000000 C
   C30        1.0     0.670796      0.791195      0.203943     Biso  1.000000 C
   C31        1.0     0.791195      0.120399      0.796057     Biso  1.000000 C
   C32        1.0     0.875472      0.212935      0.537276     Biso  1.000000 C
   C33        1.0     0.879601      0.670796      0.796057     Biso  1.000000 C
   C34        1.0     0.787065      0.662537      0.537276     Biso  1.000000 C
   C35        1.0     0.329204      0.208805      0.796057     Biso  1.000000 C
   C36        1.0     0.337463      0.124528      0.537276     Biso  1.000000 C
   C37        1.0     0.558224      0.543710      0.080440     Biso  1.000000 C
   C38        1.0     0.441776      0.456290      0.919560     Biso  1.000000 C
   C39        1.0     0.456290      0.014514      0.080440     Biso  1.000000 C
   C40        1.0     0.543710      0.985486      0.919560     Biso  1.000000 C
   C41        1.0     0.985486      0.441776      0.080440     Biso  1.000000 C
   C42        1.0     0.014514      0.558224      0.919560     Biso  1.000000 C
   C43        1.0     0.224890      0.877043      0.413773     Biso  1.000000 C
   C44        1.0     0.108443      0.789623      0.252894     Biso  1.000000 C
   C45        1.0     0.122957      0.347847      0.413773     Biso  1.000000 C
   C46        1.0     0.210377      0.318820      0.252894     Biso  1.000000 C
   C47        1.0     0.652153      0.775110      0.413773     Biso  1.000000 C
   C48        1.0     0.681180      0.891557      0.252894     Biso  1.000000 C
   C49        1.0     0.891557      0.210377      0.747106     Biso  1.000000 C
   C50        1.0     0.775110      0.122957      0.586227     Biso  1.000000 C
   C51        1.0     0.789623      0.681180      0.747106     Biso  1.000000 C
   C52        1.0     0.877043      0.652153      0.586227     Biso  1.000000 C
   C53        1.0     0.318820      0.108443      0.747106     Biso  1.000000 C
   C54        1.0     0.347847      0.224890      0.586227     Biso  1.000000 C
   C55        1.0     0.515369      0.496545      0.203052     Biso  1.000000 C
   C56        1.0     0.484631      0.503455      0.796948     Biso  1.000000 C
   C57        1.0     0.503455      0.018825      0.203052     Biso  1.000000 C
   C58        1.0     0.496545      0.981175      0.796948     Biso  1.000000 C
   C59        1.0     0.981175      0.484631      0.203052     Biso  1.000000 C
   C60        1.0     0.018825      0.515369      0.796948     Biso  1.000000 C
   C61        1.0     0.182036      0.829878      0.536385     Biso  1.000000 C
   C62        1.0     0.151297      0.836788      0.130281     Biso  1.000000 C
   C63        1.0     0.170122      0.352158      0.536385     Biso  1.000000 C
   C64        1.0     0.163211      0.314509      0.130281     Biso  1.000000 C
   C65        1.0     0.647842      0.817964      0.536385     Biso  1.000000 C
   C66        1.0     0.685491      0.848703      0.130281     Biso  1.000000 C
   C67        1.0     0.848703      0.163211      0.869718     Biso  1.000000 C
   C68        1.0     0.817964      0.170122      0.463615     Biso  1.000000 C
   C69        1.0     0.836788      0.685491      0.869718     Biso  1.000000 C
   C70        1.0     0.829878      0.647842      0.463615     Biso  1.000000 C
   C71        1.0     0.314509      0.151297      0.869718     Biso  1.000000 C
   C72        1.0     0.352158      0.182036      0.463615     Biso  1.000000 C
   H1         1.0     0.526594      0.493554      0.364110     Biso  1.000000 H
   H2         1.0     0.473405      0.506446      0.635890     Biso  1.000000 H
   H3         1.0     0.506446      0.033040      0.364110     Biso  1.000000 H
   H4         1.0     0.493554      0.966960      0.635890     Biso  1.000000 H
   H5         1.0     0.966960      0.473405      0.364110     Biso  1.000000 H
   H6         1.0     0.033040      0.526594      0.635890     Biso  1.000000 H
   H7         1.0     0.193261      0.826888      0.697443     Biso  1.000000 H
   H8         1.0     0.140072      0.839779      0.969224     Biso  1.000000 H
   H9         1.0     0.173112      0.366374      0.697443     Biso  1.000000 H
   H10        1.0     0.160221      0.300293      0.969224     Biso  1.000000 H
   H11        1.0     0.633626      0.806739      0.697443     Biso  1.000000 H
   H12        1.0     0.699707      0.859928      0.969224     Biso  1.000000 H
   H13        1.0     0.859928      0.160221      0.030776     Biso  1.000000 H
   H14        1.0     0.806739      0.173112      0.302557     Biso  1.000000 H
   H15        1.0     0.839779      0.699707      0.030776     Biso  1.000000 H
   H16        1.0     0.826888      0.633626      0.302557     Biso  1.000000 H
   H17        1.0     0.300293      0.140072      0.030776     Biso  1.000000 H
   H18        1.0     0.366374      0.193261      0.302557     Biso  1.000000 H
   Co1        1.0     0.618845      0.650371      0.341224     Biso  1.000000 Co
   Co2        1.0     0.381155      0.349629      0.658776     Biso  1.000000 Co
   Co3        1.0     0.349629      0.968473      0.341224     Biso  1.000000 Co
   Co4        1.0     0.650371      0.031527      0.658776     Biso  1.000000 Co
   Co5        1.0     0.031527      0.381155      0.341224     Biso  1.000000 Co
   Co6        1.0     0.968473      0.618845      0.658776     Biso  1.000000 Co
   Co7        1.0     0.285511      0.983705      0.674557     Biso  1.000000 Co
   Co8        1.0     0.047822      0.682962      0.992110     Biso  1.000000 Co
   Co9        1.0     0.016295      0.301807      0.674557     Biso  1.000000 Co
   Co10       1.0     0.317038      0.364860      0.992110     Biso  1.000000 Co
   Co11       1.0     0.698193      0.714489      0.674557     Biso  1.000000 Co
   Co12       1.0     0.635140      0.952178      0.992110     Biso  1.000000 Co
   Co13       1.0     0.952178      0.317038      0.007890     Biso  1.000000 Co
   Co14       1.0     0.714489      0.016295      0.325443     Biso  1.000000 Co
   Co15       1.0     0.682962      0.635140      0.007890     Biso  1.000000 Co
   Co16       1.0     0.983705      0.698193      0.325443     Biso  1.000000 Co
   Co17       1.0     0.364860      0.047822      0.007890     Biso  1.000000 Co
   Co18       1.0     0.301807      0.285511      0.325443     Biso  1.000000 Co
   O1         1.0     0.434087      0.403352      0.456033     Biso  1.000000 O
   O2         1.0     0.565913      0.596648      0.543967     Biso  1.000000 O
   O3         1.0     0.596648      0.030735      0.456033     Biso  1.000000 O
   O4         1.0     0.403352      0.969265      0.543967     Biso  1.000000 O
   O5         1.0     0.969265      0.565913      0.456033     Biso  1.000000 O
   O6         1.0     0.030735      0.434087      0.543967     Biso  1.000000 O
   O7         1.0     0.100754      0.736685      0.789366     Biso  1.000000 O
   O8         1.0     0.232580      0.929981      0.877301     Biso  1.000000 O
   O9         1.0     0.263314      0.364068      0.789366     Biso  1.000000 O
   O10        1.0     0.070019      0.302599      0.877301     Biso  1.000000 O
   O11        1.0     0.635932      0.899246      0.789366     Biso  1.000000 O
   O12        1.0     0.697401      0.767420      0.877301     Biso  1.000000 O
   O13        1.0     0.767420      0.070019      0.122699     Biso  1.000000 O
   O14        1.0     0.899246      0.263314      0.210634     Biso  1.000000 O
   O15        1.0     0.929981      0.697401      0.122699     Biso  1.000000 O
   O16        1.0     0.736685      0.635932      0.210634     Biso  1.000000 O
   O17        1.0     0.302599      0.232580      0.122699     Biso  1.000000 O
   O18        1.0     0.364068      0.100754      0.210634     Biso  1.000000 O
   O19        1.0     0.359275      0.375098      0.231800     Biso  1.000000 O
   O20        1.0     0.640725      0.624902      0.768200     Biso  1.000000 O
   O21        1.0     0.624902      0.984177      0.231800     Biso  1.000000 O
   O22        1.0     0.375098      0.015823      0.768200     Biso  1.000000 O
   O23        1.0     0.015823      0.640725      0.231800     Biso  1.000000 O
   O24        1.0     0.984177      0.359275      0.768200     Biso  1.000000 O
   O25        1.0     0.025942      0.708432      0.565133     Biso  1.000000 O
   O26        1.0     0.307392      0.958235      0.101534     Biso  1.000000 O
   O27        1.0     0.291568      0.317510      0.565133     Biso  1.000000 O
   O28        1.0     0.041765      0.349157      0.101534     Biso  1.000000 O
   O29        1.0     0.682490      0.974058      0.565133     Biso  1.000000 O
   O30        1.0     0.650843      0.692608      0.101534     Biso  1.000000 O
   O31        1.0     0.692608      0.041765      0.898466     Biso  1.000000 O
   O32        1.0     0.974058      0.291568      0.434867     Biso  1.000000 O
   O33        1.0     0.958235      0.650843      0.898466     Biso  1.000000 O
   O34        1.0     0.708432      0.682490      0.434867     Biso  1.000000 O
   O35        1.0     0.349157      0.307392      0.898466     Biso  1.000000 O
   O36        1.0     0.317510      0.025942      0.434867     Biso  1.000000 O
   O37        1.0     0.612177      0.583716      0.168612     Biso  1.000000 O
   O38        1.0     0.387823      0.416284      0.831388     Biso  1.000000 O
   O39        1.0     0.416284      0.028461      0.168612     Biso  1.000000 O
   O40        1.0     0.583716      0.971539      0.831388     Biso  1.000000 O
   O41        1.0     0.971539      0.387823      0.168612     Biso  1.000000 O
   O42        1.0     0.028461      0.612177      0.831388     Biso  1.000000 O
   O43        1.0     0.278843      0.917049      0.501945     Biso  1.000000 O
   O44        1.0     0.054490      0.749617      0.164722     Biso  1.000000 O
   O45        1.0     0.082951      0.361794      0.501945     Biso  1.000000 O
   O46        1.0     0.250383      0.304873      0.164722     Biso  1.000000 O
   O47        1.0     0.638206      0.721157      0.501945     Biso  1.000000 O
   O48        1.0     0.695127      0.945510      0.164722     Biso  1.000000 O
   O49        1.0     0.945510      0.250383      0.835278     Biso  1.000000 O
   O50        1.0     0.721157      0.082951      0.498055     Biso  1.000000 O
   O51        1.0     0.749617      0.695127      0.835278     Biso  1.000000 O
   O52        1.0     0.917049      0.638206      0.498055     Biso  1.000000 O
   O53        1.0     0.304873      0.054490      0.835278     Biso  1.000000 O
   O54        1.0     0.361794      0.278843      0.498055     Biso  1.000000 O