#======================================================================
# CRYSTAL DATA
#----------------------------------------------------------------------
data_VESTA_phase_1

_chemical_name_common                  'QUQSAY'
_cell_length_a                         9.649600
_cell_length_b                         13.681000
_cell_length_c                         15.425000
_cell_angle_alpha                      90.037003
_cell_angle_beta                       75.487999
_cell_angle_gamma                      77.575996
_cell_volume                           1922.006619
_space_group_name_H-M_alt              'P -1'
_space_group_IT_number                 2

loop_
_space_group_symop_operation_xyz
   'x, y, z'
   '-x, -y, -z'

loop_
   _atom_site_label
   _atom_site_occupancy
   _atom_site_fract_x
   _atom_site_fract_y
   _atom_site_fract_z
   _atom_site_adp_type
   _atom_site_U_iso_or_equiv
   _atom_site_type_symbol
   C1         1.0     0.749801     0.202098     0.008298    Uiso  ? C
   H1         1.0     0.704696     0.181004    -0.032701    Uiso  ? H
   C2         1.0     0.753999    -0.283503     0.040998    Uiso  ? C
   H2         1.0     0.708498    -0.307901     0.001798    Uiso  ? H
   C3         1.0     0.559497     0.009802     0.471801    Uiso  ? C
   H3         1.0     0.635702    -0.044102     0.445701    Uiso  ? H
   C4         1.0     0.363902     0.527698     0.421103    Uiso  ? C
   C5         1.0    -0.062903     0.472900     0.316502    Uiso  ? C
   C6         1.0     0.578004     0.112102     0.448002    Uiso  ? C
   C8         1.0     0.730697     0.220900     0.375597    Uiso  ? C
   H8         1.0     0.820402     0.228702     0.339898    Uiso  ? H
   C9         1.0     0.872704     0.274700     0.123900    Uiso  ? C
   H9         1.0     0.913998     0.299497     0.165099    Uiso  ? H
   C10        1.0     0.712895     0.124200     0.392803    Uiso  ? C
   H10        1.0     0.787997     0.068900     0.368501    Uiso  ? H
   C12        1.0     0.496897     0.289397     0.457600    Uiso  ? C
   H12        1.0     0.421801     0.345603     0.478998    Uiso  ? H
   C13        1.0     0.877700    -0.307003     0.147901    Uiso  ? C
   H13        1.0     0.921101    -0.349203     0.185599    Uiso  ? H
   C14        1.0     0.880301    -0.207604     0.152697    Uiso  ? C
   H14        1.0     0.922397    -0.184300     0.194299    Uiso  ? H
   C51        1.0     0.758898     0.300098     0.013798    Uiso  ? C
   H51        1.0     0.719995     0.343303    -0.024899    Uiso  ? H
   C52        1.0     0.805603     0.136398     0.061699    Uiso  ? C
   C53        1.0     0.871703     0.173600     0.122901    Uiso  ? C
   H53        1.0     0.913300     0.131498     0.161303    Uiso  ? H
   C54        1.0     0.470004     0.197299     0.478502    Uiso  ? C
   H54        1.0     0.378500     0.191899     0.513497    Uiso  ? H
   C55        1.0     0.753201    -0.180896     0.043299    Uiso  ? C
   H55        1.0     0.705498    -0.138499     0.007499    Uiso  ? H
   C56        1.0     0.823506    -0.143201     0.098699    Uiso  ? C
   C57        1.0     0.833201    -0.038299     0.106299    Uiso  ? C
   H57        1.0     0.871296    -0.020099     0.152100    Uiso  ? H
   C58        1.0     0.794204     0.030003     0.055997    Uiso  ? C
   H58        1.0     0.754399     0.011599     0.011101    Uiso  ? H
   C59        1.0     0.113606     0.479197     0.120298    Uiso  ? C
   C60        1.0     0.560602     0.488999     0.216803    Uiso  ? C
   C71        1.0     0.395398     0.494803     0.250403    Uiso  ? C
   C72        1.0     0.309902     0.504303     0.340603    Uiso  ? C
   C73        1.0     0.164503     0.495900     0.356299    Uiso  ? C
   H73        1.0     0.109003     0.499098     0.415402    Uiso  ? H
   C74        1.0     0.098104     0.483104     0.288101    Uiso  ? C
   C75        1.0     0.179096     0.480900     0.198699    Uiso  ? C
   C76        1.0     0.327498     0.486201     0.181903    Uiso  ? C
   H76        1.0     0.382299     0.483797     0.122699    Uiso  ? H
   Co1        1.0     0.814824     0.494471     0.083371    Uiso  ? Co
   Co2        1.0     0.685321     0.442970     0.381500    Uiso  ? Co
   N10        1.0     0.816201    -0.347101     0.091803    Uiso  ? N
   N11        1.0     0.818902     0.337400     0.070298    Uiso  ? N
   N12        1.0     0.627004     0.303302     0.407097    Uiso  ? N
   O1         1.0    -0.014194     0.464596     0.136699    Uiso  ? O
   O2         1.0    -0.163201     0.549303     0.333902    Uiso  ? O
   O3         1.0    -0.085499     0.385598     0.326697    Uiso  ? O
   O4         1.0     0.191102     0.494797     0.044902    Uiso  ? O
   O21        1.0     0.488900     0.543496     0.409700    Uiso  ? O
   O22        1.0     0.270702     0.534899     0.496197    Uiso  ? O
   O23        1.0     0.599799     0.531597     0.145600    Uiso  ? O
   O24        1.0     0.652403     0.440001     0.253200    Uiso  ? O