
#######################################################################
#
#                 Cambridge Crystallographic Data Centre
#                                CCDC 
#
#######################################################################
#
# If this CIF has been generated from an entry in the Cambridge 
# Structural Database, then it will include bibliographic, chemical, 
# crystal, experimental, refinement or atomic coordinate data resulting 
# from the CCDC's data processing and validation procedures.
#
#######################################################################

data_ZEBSAE
_symmetry_cell_setting           cubic
_symmetry_space_group_name_H-M   'F 41 3 2'
_symmetry_Int_Tables_number      210
_space_group_name_Hall           'F 4d 2 3'
loop_
_symmetry_equiv_pos_site_id
_symmetry_equiv_pos_as_xyz
1 x,y,z
2 -x,1/2-y,1/2+z
3 1/2-x,1/2+y,-z
4 1/2+x,-y,1/2-z
5 z,x,y
6 1/2+z,-x,1/2-y
7 -z,1/2-x,1/2+y
8 1/2-z,1/2+x,-y
9 y,z,x
10 1/2-y,1/2+z,-x
11 1/2+y,-z,1/2-x
12 -y,1/2-z,1/2+x
13 3/4+y,1/4+x,3/4-z
14 1/4-y,1/4-x,1/4-z
15 1/4+y,3/4-x,3/4+z
16 3/4-y,3/4+x,1/4+z
17 3/4+x,1/4+z,3/4-y
18 3/4-x,3/4+z,1/4+y
19 1/4-x,1/4-z,1/4-y
20 1/4+x,3/4-z,3/4+y
21 3/4+z,1/4+y,3/4-x
22 1/4+z,3/4-y,3/4+x
23 3/4-z,3/4+y,1/4+x
24 1/4-z,1/4-y,1/4-x
25 x,1/2+y,1/2+z
26 -x,-y,z
27 1/2-x,y,1/2-z
28 1/2+x,1/2-y,-z
29 z,1/2+x,1/2+y
30 1/2+z,1/2-x,-y
31 -z,-x,y
32 1/2-z,x,1/2-y
33 y,1/2+z,1/2+x
34 1/2-y,z,1/2-x
35 1/2+y,1/2-z,-x
36 -y,-z,x
37 3/4+y,3/4+x,1/4-z
38 1/4-y,3/4-x,3/4-z
39 1/4+y,1/4-x,1/4+z
40 3/4-y,1/4+x,3/4+z
41 3/4+x,3/4+z,1/4-y
42 3/4-x,1/4+z,3/4+y
43 1/4-x,3/4-z,3/4-y
44 1/4+x,1/4-z,1/4+y
45 3/4+z,3/4+y,1/4-x
46 1/4+z,1/4-y,1/4+x
47 3/4-z,1/4+y,3/4+x
48 1/4-z,3/4-y,3/4-x
49 1/2+x,y,1/2+z
50 1/2-x,1/2-y,z
51 -x,1/2+y,1/2-z
52 x,-y,-z
53 1/2+z,x,1/2+y
54 z,-x,-y
55 1/2-z,1/2-x,y
56 -z,1/2+x,1/2-y
57 1/2+y,z,1/2+x
58 -y,1/2+z,1/2-x
59 y,-z,-x
60 1/2-y,1/2-z,x
61 1/4+y,1/4+x,1/4-z
62 3/4-y,1/4-x,3/4-z
63 3/4+y,3/4-x,1/4+z
64 1/4-y,3/4+x,3/4+z
65 1/4+x,1/4+z,1/4-y
66 1/4-x,3/4+z,3/4+y
67 3/4-x,1/4-z,3/4-y
68 3/4+x,3/4-z,1/4+y
69 1/4+z,1/4+y,1/4-x
70 3/4+z,3/4-y,1/4+x
71 1/4-z,3/4+y,3/4+x
72 3/4-z,1/4-y,3/4-x
73 1/2+x,1/2+y,z
74 1/2-x,-y,1/2+z
75 -x,y,-z
76 x,1/2-y,1/2-z
77 1/2+z,1/2+x,y
78 z,1/2-x,1/2-y
79 1/2-z,-x,1/2+y
80 -z,x,-y
81 1/2+y,1/2+z,x
82 -y,z,-x
83 y,1/2-z,1/2-x
84 1/2-y,-z,1/2+x
85 1/4+y,3/4+x,3/4-z
86 3/4-y,3/4-x,1/4-z
87 3/4+y,1/4-x,3/4+z
88 1/4-y,1/4+x,1/4+z
89 1/4+x,3/4+z,3/4-y
90 1/4-x,1/4+z,1/4+y
91 3/4-x,3/4-z,1/4-y
92 3/4+x,1/4-z,3/4+y
93 1/4+z,3/4+y,3/4-x
94 3/4+z,1/4-y,3/4+x
95 1/4-z,1/4+y,1/4+x
96 3/4-z,3/4-y,1/4-x
_cell_length_a                   39.899
_cell_length_b                   39.899
_cell_length_c                   39.899
_cell_angle_alpha                90
_cell_angle_beta                 90
_cell_angle_gamma                90
_cell_volume                     63516.4
loop_
_atom_site_label
_atom_site_type_symbol
_atom_site_fract_x
_atom_site_fract_y
_atom_site_fract_z
Zr1 Zr 0.750001 0.250001 0.685899
O1 O 0.778799 0.278799 0.721201
O2 O 0.784799 0.215201 0.715201
O3 O 0.701499 0.251801 0.656199
O4 O 0.753999 0.3019 0.659999
O9 O 0.798501 0.248199 0.656199
O10 O 0.721201 0.221201 0.721201
O11 O 0.715201 0.284799 0.715201
O13 O 0.746001 0.1981 0.659999
Zr2 Zr 0.814101 0.250001 0.750001
Zr3 Zr 0.750001 0.314101 0.750001
Zr4 Zr 0.750001 0.185899 0.750001
C1 C 0.669801 0.249001 0.6672
C15 C 0.750999 0.3328 0.669801
C16 C 0.830199 0.250999 0.6672
Zr5 Zr 0.685899 0.250001 0.750001
O14 O 0.784799 0.284799 0.784799
O15 O 0.840001 0.253999 0.6981
O16 O 0.778799 0.221201 0.778799
O17 O 0.843801 0.201499 0.748199
O18 O 0.843801 0.298501 0.751801
O19 O 0.840001 0.246001 0.8019
O21 O 0.721201 0.278799 0.778799
O22 O 0.748199 0.343801 0.701499
O23 O 0.751801 0.343801 0.798501
O24 O 0.6981 0.340001 0.753999
O25 O 0.8019 0.340001 0.746001
O27 O 0.659999 0.246001 0.6981
C2 C 0.641001 0.248249 0.6416
C17 C 0.751751 0.3584 0.641001
C18 C 0.858999 0.251751 0.6416
Zr6 Zr 0.750001 0.250001 0.814101
C3 C 0.6091 0.242001 0.649099
C7 C 0.651999 0.2556 0.605
C19 C 0.757999 0.350901 0.6091
C20 C 0.7444 0.395 0.651999
C21 C 0.8909 0.257999 0.649099
C22 C 0.848001 0.2444 0.605
C4 C 0.5821 0.2415 0.6238
C6 C 0.6266 0.2555 0.578999
C23 C 0.7585 0.3762 0.5821
C24 C 0.7445 0.421001 0.6266
C25 C 0.9179 0.2585 0.6238
C26 C 0.8734 0.2445 0.578999
O5 O 0.5525 0.234299 0.640001
C5 C 0.5919 0.2484 0.5891
O28 O 0.765701 0.359999 0.5525
C27 C 0.7516 0.4109 0.5919
O29 O 0.9475 0.265701 0.640001
C28 C 0.9081 0.2516 0.5891
N1 N 0.56441 0.247801 0.56435
N2 N 0.752199 0.43565 0.56441
N3 N 0.93559 0.252199 0.56435
C8 C 0.551901 0.278899 0.552999
C12 C 0.5526 0.215499 0.550099
C29 C 0.721101 0.447001 0.551901
C30 C 0.784501 0.449901 0.5526
C31 C 0.948099 0.221101 0.552999
C32 C 0.9474 0.284501 0.550099
O7 O 0.5663 0.306599 0.563601
C9 C 0.5256 0.2773 0.524399
O8 O 0.562701 0.1883 0.5653
C11 C 0.5257 0.2147 0.524499
O30 O 0.693401 0.436399 0.5663
C33 C 0.7227 0.475601 0.5256
O31 O 0.8117 0.4347 0.562701
C34 C 0.7853 0.475501 0.5257
O33 O 0.9337 0.193401 0.563601
C35 C 0.9744 0.2227 0.524399
O34 O 0.937299 0.3117 0.5653
C36 C 0.9743 0.2853 0.524499
C10 C 0.514201 0.247001 0.513499
C14 C 0.513201 0.310101 0.512499
C13 C 0.513101 0.1833 0.512499
C37 C 0.752999 0.486501 0.514201
C38 C 0.689899 0.487501 0.513201
C39 C 0.8167 0.487501 0.513101
C40 C 0.985799 0.252999 0.513499
C41 C 0.986799 0.189899 0.512499
C42 C 0.986899 0.3167 0.512499
C43 C 0.485799 0.247001 0.486501
C44 C 0.486799 0.310101 0.487501
C45 C 0.486899 0.1833 0.487501
C46 C 0.752999 0.513499 0.485799
C47 C 0.689899 0.512499 0.486799
C48 C 0.8167 0.512499 0.486899
C49 C 1.0142 0.252999 0.486501
C50 C 1.0132 0.189899 0.487501
C51 C 1.0131 0.3167 0.487501
C52 C 0.4744 0.2773 0.475601
C53 C 0.4743 0.2147 0.475501
C54 C 0.7227 0.524399 0.4744
C55 C 0.7853 0.524499 0.4743
C56 C 1.0256 0.2227 0.475601
C57 C 1.0257 0.2853 0.475501
C58 C 0.448099 0.278899 0.447001
C59 C 0.4474 0.215499 0.449901
C60 C 0.721101 0.552999 0.448099
C61 C 0.784501 0.550099 0.4474
C62 C 1.0519 0.221101 0.447001
C63 C 1.0526 0.284501 0.449901
O35 O 0.4337 0.306599 0.436399
N4 N 0.43559 0.247801 0.43565
O36 O 0.437299 0.1883 0.4347
O37 O 0.693401 0.563601 0.4337
N5 N 0.752199 0.56435 0.43559
O39 O 0.8117 0.5653 0.437299
O40 O 1.0663 0.193401 0.436399
N6 N 1.06441 0.252199 0.43565
O41 O 1.0627 0.3117 0.4347
C64 C 0.4081 0.2484 0.4109
C65 C 0.7516 0.5891 0.4081
C66 C 1.0919 0.2516 0.4109
C67 C 0.4179 0.2415 0.3762
C68 C 0.3734 0.2555 0.421001
C69 C 0.7585 0.6238 0.4179
C70 C 0.7445 0.578999 0.3734
C71 C 1.0821 0.2585 0.3762
C72 C 1.1266 0.2445 0.421001
O42 O 0.4475 0.234299 0.359999
C73 C 0.3909 0.242001 0.350901
C74 C 0.348001 0.2556 0.395
O43 O 0.765701 0.640001 0.4475
C75 C 0.757999 0.649099 0.3909
C76 C 0.7444 0.605 0.348001
O44 O 1.0525 0.265701 0.359999
C77 C 1.1091 0.257999 0.350901
C78 C 1.152 0.2444 0.395
C79 C 0.358999 0.248249 0.3584
C80 C 0.751751 0.6416 0.358999
C81 C 1.141 0.251751 0.3584
C82 C 0.330199 0.249001 0.3328
C83 C 0.750999 0.6672 0.330199
C84 C 1.1698 0.250999 0.3328
O45 O 0.298501 0.251801 0.343801
O46 O 0.340001 0.246001 0.3019
O47 O 0.748199 0.656199 0.298501
O48 O 0.753999 0.6981 0.340001
O49 O 1.2015 0.248199 0.343801
O50 O 1.16 0.253999 0.3019
Zr7 Zr 0.250001 0.250001 0.314101
Zr8 Zr 0.314101 0.250001 0.250001
Zr9 Zr 0.750001 0.685899 0.250001
Zr10 Zr 0.750001 0.750001 0.314101
Zr11 Zr 1.25 0.250001 0.314101
Zr12 Zr 1.1859 0.250001 0.250001
H1 H 0.602606 0.237021 0.675137
H2 H 0.678133 0.260704 0.599005
H3 H 0.762979 0.324863 0.602606
H4 H 0.739296 0.400995 0.678133
H5 H 0.897394 0.262979 0.675137
H6 H 0.821867 0.239296 0.599005
H7 H 0.633007 0.260503 0.552944
H8 H 0.739497 0.447056 0.633007
H9 H 0.866993 0.239497 0.552944
H10 H 0.540786 0.215863 0.628073
H11 H 0.784137 0.371927 0.540786
H12 H 0.959214 0.284137 0.628073
H13 H 0.523517 0.333453 0.522153
H14 H 0.523117 0.159784 0.522071
H15 H 0.666547 0.477847 0.523517
H16 H 0.840216 0.477929 0.523117
H17 H 0.976483 0.166547 0.522153
H18 H 0.976883 0.340216 0.522071
H19 H 0.476483 0.333453 0.477847
H20 H 0.476883 0.159784 0.477929
H21 H 0.666547 0.522153 0.476483
H22 H 0.840216 0.522071 0.476883
H23 H 1.02352 0.166547 0.477847
H24 H 1.02312 0.340216 0.477929
H25 H 0.366993 0.260503 0.447056
H26 H 0.739497 0.552944 0.366993
H27 H 1.13301 0.239497 0.447056
H28 H 0.459214 0.215863 0.371927
H29 H 0.397394 0.237021 0.324863
H30 H 0.321867 0.260704 0.400995
H31 H 0.784137 0.628073 0.459214
H32 H 0.762979 0.675137 0.397394
H33 H 0.739296 0.599005 0.321867
H34 H 1.04079 0.284137 0.371927
H35 H 1.10261 0.262979 0.324863
H36 H 1.17813 0.239296 0.400995
O6? O 0.636901 0.2622 0.5456

#END
