#======================================================================

# CRYSTAL DATA

#----------------------------------------------------------------------

data_VESTA_phase_1


_pd_phase_name                         'CPO27/MOF74 metal variation - PBEsol  '
_cell_length_a                         25.56379
_cell_length_b                         25.56379
_cell_length_c                         6.20132
_cell_angle_alpha                      90
_cell_angle_beta                       90
_cell_angle_gamma                      120
_symmetry_space_group_name_H-M         'P 1'
_symmetry_Int_Tables_number            1

loop_
_symmetry_equiv_pos_as_xyz
   'x, y, z'

loop_
   _atom_site_label
   _atom_site_occupancy
   _atom_site_fract_x
   _atom_site_fract_y
   _atom_site_fract_z
   _atom_site_adp_type
   _atom_site_B_iso_or_equiv
   _atom_site_type_symbol
   C1         1.0     0.417139      0.409874      0.290398     Biso  1.000000 C
   C2         1.0     0.582861      0.590126      0.709602     Biso  1.000000 C
   C3         1.0     0.590126      0.007264      0.290398     Biso  1.000000 C
   C4         1.0     0.409874      0.992736      0.709602     Biso  1.000000 C
   C5         1.0     0.992736      0.582861      0.290398     Biso  1.000000 C
   C6         1.0     0.007264      0.417139      0.709602     Biso  1.000000 C
   C7         1.0     0.083805      0.743208      0.623731     Biso  1.000000 C
   C8         1.0     0.249528      0.923459      0.042936     Biso  1.000000 C
   C9         1.0     0.256792      0.340598      0.623731     Biso  1.000000 C
   C10        1.0     0.076541      0.326069      0.042936     Biso  1.000000 C
   C11        1.0     0.659402      0.916194      0.623731     Biso  1.000000 C
   C12        1.0     0.673931      0.750472      0.042936     Biso  1.000000 C
   C13        1.0     0.750472      0.076541      0.957064     Biso  1.000000 C
   C14        1.0     0.916194      0.256792      0.376269     Biso  1.000000 C
   C15        1.0     0.923459      0.673931      0.957064     Biso  1.000000 C
   C16        1.0     0.743208      0.659402      0.376269     Biso  1.000000 C
   C17        1.0     0.326069      0.249528      0.957064     Biso  1.000000 C
   C18        1.0     0.340598      0.083805      0.376269     Biso  1.000000 C
   C19        1.0     0.460022      0.453338      0.134525     Biso  1.000000 C
   C20        1.0     0.539978      0.546662      0.865475     Biso  1.000000 C
   C21        1.0     0.546662      0.006684      0.134525     Biso  1.000000 C
   C22        1.0     0.453338      0.993316      0.865475     Biso  1.000000 C
   C23        1.0     0.993316      0.539978      0.134525     Biso  1.000000 C
   C24        1.0     0.006684      0.460022      0.865475     Biso  1.000000 C
   C25        1.0     0.126688      0.786671      0.467858     Biso  1.000000 C
   C26        1.0     0.206645      0.879996      0.198808     Biso  1.000000 C
   C27        1.0     0.213329      0.340017      0.467858     Biso  1.000000 C
   C28        1.0     0.120004      0.326649      0.198808     Biso  1.000000 C
   C29        1.0     0.659982      0.873311      0.467858     Biso  1.000000 C
   C30        1.0     0.673351      0.793355      0.198808     Biso  1.000000 C
   C31        1.0     0.793355      0.120004      0.801191     Biso  1.000000 C
   C32        1.0     0.873311      0.213329      0.532142     Biso  1.000000 C
   C33        1.0     0.879996      0.673351      0.801191     Biso  1.000000 C
   C34        1.0     0.786671      0.659982      0.532142     Biso  1.000000 C
   C35        1.0     0.326649      0.206645      0.801191     Biso  1.000000 C
   C36        1.0     0.340017      0.126688      0.532142     Biso  1.000000 C
   C37        1.0     0.557589      0.543536      0.079967     Biso  1.000000 C
   C38        1.0     0.442411      0.456464      0.920033     Biso  1.000000 C
   C39        1.0     0.456464      0.014053      0.079967     Biso  1.000000 C
   C40        1.0     0.543536      0.985947      0.920033     Biso  1.000000 C
   C41        1.0     0.985947      0.442411      0.079967     Biso  1.000000 C
   C42        1.0     0.014053      0.557589      0.920033     Biso  1.000000 C
   C43        1.0     0.224255      0.876869      0.413300     Biso  1.000000 C
   C44        1.0     0.109078      0.789797      0.253367     Biso  1.000000 C
   C45        1.0     0.123131      0.347386      0.413300     Biso  1.000000 C
   C46        1.0     0.210203      0.319281      0.253367     Biso  1.000000 C
   C47        1.0     0.652614      0.775745      0.413300     Biso  1.000000 C
   C48        1.0     0.680719      0.890922      0.253367     Biso  1.000000 C
   C49        1.0     0.890922      0.210203      0.746633     Biso  1.000000 C
   C50        1.0     0.775745      0.123131      0.586700     Biso  1.000000 C
   C51        1.0     0.789797      0.680719      0.746633     Biso  1.000000 C
   C52        1.0     0.876869      0.652614      0.586700     Biso  1.000000 C
   C53        1.0     0.319281      0.109078      0.746633     Biso  1.000000 C
   C54        1.0     0.347386      0.224255      0.586700     Biso  1.000000 C
   C55        1.0     0.517296      0.495520      0.209722     Biso  1.000000 C
   C56        1.0     0.482703      0.504480      0.790278     Biso  1.000000 C
   C57        1.0     0.504480      0.021777      0.209722     Biso  1.000000 C
   C58        1.0     0.495520      0.978223      0.790278     Biso  1.000000 C
   C59        1.0     0.978223      0.482703      0.209722     Biso  1.000000 C
   C60        1.0     0.021777      0.517296      0.790278     Biso  1.000000 C
   C61        1.0     0.183963      0.828853      0.543055     Biso  1.000000 C
   C62        1.0     0.149370      0.837813      0.123612     Biso  1.000000 C
   C63        1.0     0.171147      0.355110      0.543055     Biso  1.000000 C
   C64        1.0     0.162186      0.311557      0.123612     Biso  1.000000 C
   C65        1.0     0.644890      0.816037      0.543055     Biso  1.000000 C
   C66        1.0     0.688443      0.850630      0.123612     Biso  1.000000 C
   C67        1.0     0.850630      0.162186      0.876388     Biso  1.000000 C
   C68        1.0     0.816037      0.171147      0.456945     Biso  1.000000 C
   C69        1.0     0.837813      0.688443      0.876388     Biso  1.000000 C
   C70        1.0     0.828853      0.644890      0.456945     Biso  1.000000 C
   C71        1.0     0.311557      0.149370      0.876388     Biso  1.000000 C
   C72        1.0     0.355110      0.183963      0.456945     Biso  1.000000 C
   H1         1.0     0.529684      0.491614      0.375134     Biso  1.000000 H
   H2         1.0     0.470316      0.508386      0.624866     Biso  1.000000 H
   H3         1.0     0.508386      0.038070      0.375134     Biso  1.000000 H
   H4         1.0     0.491614      0.961930      0.624866     Biso  1.000000 H
   H5         1.0     0.961930      0.470316      0.375134     Biso  1.000000 H
   H6         1.0     0.038070      0.529684      0.624866     Biso  1.000000 H
   H7         1.0     0.196351      0.824947      0.708467     Biso  1.000000 H
   H8         1.0     0.136983      0.841719     -0.041801     Biso  1.000000 H
   H9         1.0     0.175053      0.371404      0.708467     Biso  1.000000 H
   H10        1.0     0.158281      0.295263     -0.041801     Biso  1.000000 H
   H11        1.0     0.628596      0.803649      0.708467     Biso  1.000000 H
   H12        1.0     0.704737      0.863017     -0.041801     Biso  1.000000 H
   H13        1.0     0.863017      0.158281      0.041801     Biso  1.000000 H
   H14        1.0     0.803649      0.175053      0.291533     Biso  1.000000 H
   H15        1.0     0.841719      0.704737      0.041801     Biso  1.000000 H
   H16        1.0     0.824947      0.628596      0.291533     Biso  1.000000 H
   H17        1.0     0.295263      0.136983      0.041801     Biso  1.000000 H
   H18        1.0     0.371404      0.196351      0.291533     Biso  1.000000 H
   Ni1        1.0     0.613589      0.651963      0.322990     Biso  1.000000 Ni
   Ni2        1.0     0.386411      0.348037      0.677010     Biso  1.000000 Ni
   Ni3        1.0     0.348037      0.961626      0.322990     Biso  1.000000 Ni
   Ni4        1.0     0.651963      0.038374      0.677010     Biso  1.000000 Ni
   Ni5        1.0     0.038374      0.386411      0.322990     Biso  1.000000 Ni
   Ni6        1.0     0.961626      0.613589      0.677010     Biso  1.000000 Ni
   Ni7        1.0     0.280255      0.985296      0.656323     Biso  1.000000 Ni
   Ni8        1.0     0.053078      0.681371      1.010344     Biso  1.000000 Ni
   Ni9        1.0     0.014704      0.294959      0.656323     Biso  1.000000 Ni
   Ni10       1.0     0.318629      0.371707      1.010344     Biso  1.000000 Ni
   Ni11       1.0     0.705040      0.719744      0.656323     Biso  1.000000 Ni
   Ni12       1.0     0.628293      0.946922      1.010344     Biso  1.000000 Ni
   Ni13       1.0     0.946922      0.318629     -0.010344     Biso  1.000000 Ni
   Ni14       1.0     0.719744      0.014704      0.343677     Biso  1.000000 Ni
   Ni15       1.0     0.681371      0.628293     -0.010344     Biso  1.000000 Ni
   Ni16       1.0     0.985296      0.705040      0.343677     Biso  1.000000 Ni
   Ni17       1.0     0.371707      0.053078     -0.010344     Biso  1.000000 Ni
   Ni18       1.0     0.294959      0.280255      0.343677     Biso  1.000000 Ni
   O1         1.0     0.437216      0.399325      0.463819     Biso  1.000000 O
   O2         1.0     0.562784      0.600675      0.536180     Biso  1.000000 O
   O3         1.0     0.600675      0.037891      0.463819     Biso  1.000000 O
   O4         1.0     0.399325      0.962109      0.536180     Biso  1.000000 O
   O5         1.0     0.962109      0.562784      0.463819     Biso  1.000000 O
   O6         1.0     0.037891      0.437216      0.536180     Biso  1.000000 O
   O7         1.0     0.103883      0.732658      0.797153     Biso  1.000000 O
   O8         1.0     0.229451      0.934009      0.869514     Biso  1.000000 O
   O9         1.0     0.267342      0.371225      0.797153     Biso  1.000000 O
   O10        1.0     0.065991      0.295442      0.869514     Biso  1.000000 O
   O11        1.0     0.628775      0.896117      0.797153     Biso  1.000000 O
   O12        1.0     0.704558      0.770549      0.869514     Biso  1.000000 O
   O13        1.0     0.770549      0.065991      0.130486     Biso  1.000000 O
   O14        1.0     0.896117      0.267342      0.202847     Biso  1.000000 O
   O15        1.0     0.934009      0.704558      0.130486     Biso  1.000000 O
   O16        1.0     0.732658      0.628775      0.202847     Biso  1.000000 O
   O17        1.0     0.295442      0.229451      0.130486     Biso  1.000000 O
   O18        1.0     0.371225      0.103883      0.202847     Biso  1.000000 O
   O19        1.0     0.360210      0.386080      0.262321     Biso  1.000000 O
   O20        1.0     0.639790      0.613920      0.737679     Biso  1.000000 O
   O21        1.0     0.613920     -0.025870      0.262321     Biso  1.000000 O
   O22        1.0     0.386080      1.025870      0.737679     Biso  1.000000 O
   O23        1.0     1.025870      0.639790      0.262321     Biso  1.000000 O
   O24        1.0    -0.025870      0.360210      0.737679     Biso  1.000000 O
   O25        1.0     0.026876      0.719413      0.595654     Biso  1.000000 O
   O26        1.0     0.306457      0.947254      0.071012     Biso  1.000000 O
   O27        1.0     0.280587      0.307463      0.595654     Biso  1.000000 O
   O28        1.0     0.052746      0.359203      0.071012     Biso  1.000000 O
   O29        1.0     0.692537      0.973124      0.595654     Biso  1.000000 O
   O30        1.0     0.640797      0.693543      0.071012     Biso  1.000000 O
   O31        1.0     0.693543      0.052746      0.928988     Biso  1.000000 O
   O32        1.0     0.973124      0.280587      0.404345     Biso  1.000000 O
   O33        1.0     0.947254      0.640797      0.928988     Biso  1.000000 O
   O34        1.0     0.719413      0.692537      0.404345     Biso  1.000000 O
   O35        1.0     0.359203      0.306457      0.928988     Biso  1.000000 O
   O36        1.0     0.307463      0.026876      0.404345     Biso  1.000000 O
   O37        1.0     0.611228      0.585536      0.164892     Biso  1.000000 O
   O38        1.0     0.388772      0.414463      0.835108     Biso  1.000000 O
   O39        1.0     0.414463      0.025692      0.164892     Biso  1.000000 O
   O40        1.0     0.585536      0.974308      0.835108     Biso  1.000000 O
   O41        1.0     0.974308      0.388772      0.164892     Biso  1.000000 O
   O42        1.0     0.025692      0.611228      0.835108     Biso  1.000000 O
   O43        1.0     0.277895      0.918870      0.498225     Biso  1.000000 O
   O44        1.0     0.055438      0.747797      0.168441     Biso  1.000000 O
   O45        1.0     0.081130      0.359025      0.498225     Biso  1.000000 O
   O46        1.0     0.252203      0.307641      0.168441     Biso  1.000000 O
   O47        1.0     0.640975      0.722105      0.498225     Biso  1.000000 O
   O48        1.0     0.692359      0.944562      0.168441     Biso  1.000000 O
   O49        1.0     0.944562      0.252203      0.831559     Biso  1.000000 O
   O50        1.0     0.722105      0.081130      0.501775     Biso  1.000000 O
   O51        1.0     0.747797      0.692359      0.831559     Biso  1.000000 O
   O52        1.0     0.918870      0.640975      0.501775     Biso  1.000000 O
   O53        1.0     0.307641      0.055438      0.831559     Biso  1.000000 O
   O54        1.0     0.359025      0.277895      0.501775     Biso  1.000000 O